24

  N   2.403328   0.854109   2.438412
  C   1.680328  -0.198891   1.733412
  C   2.301328  -1.554891   2.073412
  O   1.587328  -2.530891   2.289412
  C   1.704328   0.048109   0.218412
  S   0.747328  -1.178891  -0.732588
  N  -1.346672   2.194109   0.227412
  C  -1.375672   1.545109  -1.079588
  C  -2.194672   2.399109  -2.041588
  O  -1.842672   2.543109  -3.210588
  C  -2.005672   0.154109  -0.988588
  S  -1.122672  -1.054891   0.059412
  O   3.593734  -1.680708   2.135505
  O  -3.279091   2.985124  -1.628524
  H   3.183711   0.622248   3.019138
  H   2.127855   1.809185   2.329123
  H   0.272171  -0.177222   2.154750
  H  -0.235248   2.021090  -1.875689
  H   2.899145  -0.072700  -0.629360
  H   0.543347   0.914773   0.467243
  H  -2.110260  -1.137939  -1.681822
  H  -1.948845   0.746155   0.355716
  H   4.548127  -1.773619   2.181358
  H  -4.079893   3.417873  -1.323491
